Version 4
SHEET 1 880 764
WIRE -384 -16 -416 -16
WIRE -272 -16 -304 -16
WIRE 32 -16 16 -16
WIRE 144 -16 112 -16
WIRE 320 -16 272 -16
WIRE 416 -16 384 -16
WIRE -544 80 -624 80
WIRE -416 80 -416 -16
WIRE -416 80 -464 80
WIRE -384 80 -416 80
WIRE -192 80 -240 80
WIRE -64 80 -64 -64
WIRE -64 80 -112 80
WIRE 16 80 16 -16
WIRE 16 80 -64 80
WIRE 48 80 16 80
WIRE 144 80 144 -16
WIRE 176 80 144 80
WIRE 272 80 272 -16
WIRE 272 80 256 80
WIRE 320 80 272 80
WIRE -272 96 -272 -16
WIRE -272 96 -320 96
WIRE -240 96 -240 80
WIRE -240 96 -272 96
WIRE 144 96 144 80
WIRE 144 96 112 96
WIRE 416 96 416 -16
WIRE 416 96 384 96
WIRE 432 96 416 96
WIRE -384 112 -432 112
WIRE 48 112 0 112
WIRE 320 112 272 112
WIRE -432 128 -432 112
WIRE 0 128 0 112
WIRE 272 144 272 112
WIRE 304 336 288 336
WIRE 416 336 384 336
WIRE -208 352 -256 352
WIRE 16 352 0 352
WIRE 112 352 80 352
WIRE -336 496 -336 352
WIRE -336 496 -368 496
WIRE -304 496 -336 496
WIRE -208 496 -208 352
WIRE -176 496 -208 496
WIRE -144 496 -176 496
WIRE 0 496 0 352
WIRE 0 496 -64 496
WIRE 32 496 0 496
WIRE 112 496 112 352
WIRE 176 496 112 496
WIRE 288 496 288 336
WIRE 288 496 256 496
WIRE 320 496 288 496
WIRE -208 512 -208 496
WIRE -208 512 -240 512
WIRE 112 512 112 496
WIRE 112 512 96 512
WIRE 416 512 416 336
WIRE 416 512 384 512
WIRE 448 512 416 512
WIRE 480 512 448 512
WIRE -304 528 -336 528
WIRE 32 528 -16 528
WIRE 320 528 272 528
WIRE -336 544 -336 528
WIRE -16 544 -16 528
WIRE 272 544 272 528
WIRE 448 640 448 512
WIRE 448 640 160 640
WIRE -176 704 -176 496
WIRE -160 704 -176 704
WIRE 160 704 160 640
WIRE 304 704 160 704
WIRE 480 704 384 704
FLAG -336 544 0
FLAG -16 544 0
FLAG 272 544 0
FLAG 0 128 0
FLAG 272 144 0
FLAG -432 128 0
FLAG -624 160 0
FLAG -80 704 feed2
FLAG -448 496 feed1
FLAG -592 320 0
FLAG -736 400 0
FLAG -736 320 Vs+
FLAG -592 400 Vs-
FLAG -272 544 Vs-
FLAG 352 544 Vs-
FLAG 352 128 Vs-
FLAG 80 128 Vs-
FLAG -352 128 Vs-
FLAG 64 544 Vs-
FLAG -352 64 Vs+
FLAG 80 64 Vs+
FLAG 352 64 Vs+
FLAG 352 480 Vs+
FLAG 64 480 Vs+
FLAG -272 480 Vs+
FLAG 480 512 Vout
FLAG -64 -64 feed2
FLAG 480 704 feed2
FLAG 432 96 feed1
SYMBOL res -288 -32 R90
WINDOW 0 0 56 VBottom 2
WINDOW 3 32 56 VTop 2
SYMATTR InstName R2
SYMATTR Value 10k
SYMBOL res -448 64 R90
WINDOW 0 0 56 VBottom 2
WINDOW 3 32 56 VTop 2
SYMATTR InstName R1
SYMATTR Value 10k
SYMBOL res 128 -32 R90
WINDOW 0 0 56 VBottom 2
WINDOW 3 32 56 VTop 2
SYMATTR InstName R4
SYMATTR Value 10k
SYMBOL res -96 64 R90
WINDOW 0 -10 62 VBottom 2
WINDOW 3 32 56 VTop 2
SYMATTR InstName R3
SYMATTR Value 10k
SYMBOL res 272 480 R90
WINDOW 0 0 56 VBottom 2
WINDOW 3 32 56 VTop 2
SYMATTR InstName R9
SYMATTR Value 10k
SYMBOL res 400 320 R90
WINDOW 0 0 56 VBottom 2
WINDOW 3 32 56 VTop 2
SYMATTR InstName R10
SYMATTR Value 10k
SYMBOL res -48 480 R90
WINDOW 0 0 56 VBottom 2
WINDOW 3 32 56 VTop 2
SYMATTR InstName R8
SYMATTR Value 47k
SYMBOL res -352 480 R90
WINDOW 0 0 56 VBottom 2
WINDOW 3 32 56 VTop 2
SYMATTR InstName R6
SYMATTR Value 10k
SYMBOL res -240 336 R90
WINDOW 0 0 56 VBottom 2
WINDOW 3 32 56 VTop 2
SYMATTR InstName R7
SYMATTR Value 10k
SYMBOL cap 80 336 R90
WINDOW 0 0 32 VBottom 2
WINDOW 3 32 32 VTop 2
SYMATTR InstName C6
SYMATTR Value 1µ
SYMBOL cap 384 -32 R90
WINDOW 0 0 32 VBottom 2
WINDOW 3 32 32 VTop 2
SYMATTR InstName C5
SYMATTR Value 1µ
SYMBOL res 272 64 R90
WINDOW 0 0 56 VBottom 2
WINDOW 3 32 56 VTop 2
SYMATTR InstName R5
SYMATTR Value 10k
SYMBOL res -64 688 R90
WINDOW 0 0 56 VBottom 2
WINDOW 3 32 56 VTop 2
SYMATTR InstName Rf2
SYMATTR Value 18k
SYMBOL Opamps\\opamp2 -352 32 R0
SYMATTR InstName U1
SYMATTR Value TL082
SYMBOL Opamps\\opamp2 80 32 R0
SYMATTR InstName U2
SYMATTR Value TL082
SYMBOL Opamps\\opamp2 352 32 R0
SYMATTR InstName U3
SYMATTR Value TL082
SYMBOL Opamps\\opamp2 -272 448 R0
SYMATTR InstName U4
SYMATTR Value TL082
SYMBOL Opamps\\opamp2 352 448 R0
SYMATTR InstName U6
SYMATTR Value TL082
SYMBOL voltage -736 304 R0
SYMATTR InstName V2
SYMATTR Value 12
SYMBOL voltage -592 304 R0
SYMATTR InstName V3
SYMATTR Value 12
SYMBOL Opamps\\opamp2 64 448 R0
SYMATTR InstName U5
SYMATTR Value TL082
SYMBOL res 400 688 R90
WINDOW 0 0 56 VBottom 2
WINDOW 3 32 56 VTop 2
SYMATTR InstName Rf1
SYMATTR Value 10k
SYMBOL voltage -624 64 R0
WINDOW 123 0 0 Left 2
WINDOW 39 0 0 Left 2
SYMATTR InstName V1
SYMATTR Value PULSE(0 2 0 0 0 1 0 1)
TEXT 112 -64 Left 2 !.inc "TL082.301"
TEXT -1192 24 Left 2 !.tran 10s
